[TITLE]
;;Project Title/Notes
骞虫睙鏂板煄

[OPTIONS]
;;Option             Value
FLOW_UNITS           CMS
INFILTRATION         HORTON
FLOW_ROUTING         DYNWAVE
LINK_OFFSETS         DEPTH
MIN_SLOPE            0
ALLOW_PONDING        YES
SKIP_STEADY_STATE    NO

START_DATE           01/01/2018
START_TIME           00:00:00
REPORT_START_DATE    01/01/2018
REPORT_START_TIME    00:00:00
END_DATE             01/01/2018
END_TIME             02:00:00
SWEEP_START          01/01
SWEEP_END            01/02
DRY_DAYS             14
REPORT_STEP          00:05:00
WET_STEP             00:05:00
DRY_STEP             06:00:00
ROUTING_STEP         0:00:30 
RULE_STEP            00:00:00

INERTIAL_DAMPING     PARTIAL
NORMAL_FLOW_LIMITED  BOTH
FORCE_MAIN_EQUATION  H-W
VARIABLE_STEP        1.00
LENGTHENING_STEP     0
MIN_SURFAREA         1
MAX_TRIALS           10
HEAD_TOLERANCE       0.0015
SYS_FLOW_TOL         5
LAT_FLOW_TOL         5
MINIMUM_STEP         0.5
THREADS              4

[EVAPORATION]
;;Data Source    Parameters
;;-------------- ----------------
TIMESERIES       EVP2016
DRY_ONLY         YES

[RAINGAGES]
;;Name           Format    Interval SCF      Source    
;;-------------- --------- ------ ------ ----------
1                INTENSITY 0:05     1.0      FILE       "2h_3.dat"       1          MM  

[SUBCATCHMENTS]
;;Name           Rain Gage        Outlet           Area     %Imperv  Width    %Slope   CurbLen  SnowPack        
;;-------------- ---------------- ---------------- -------- -------- -------- -------- -------- ----------------
RD01_1_rdsq_out_no   1   RD01_1_rdsq_out_with_PP   0.1037   100   364.110   1.254   0
 RD01_1_rdsq_out_with_PP   1   RD01_1_rdsq_out_with_VS   0.0145   100   364.110   1.254   0
 RD01_1_rdsq_out_with_VS   1   Y475   0.0259   0    5.000   1.254   0
 RD01_10_rdsq_out_no   1   RD01_10_rdsq_out_with_PP   0.2752   100   593.154   0.874   0
 RD01_10_rdsq_out_with_PP   1   RD01_10_rdsq_out_with_VS   0.0386   100   593.154   0.874   0
 RD01_10_rdsq_out_with_VS   1   Y170   0.0688   0    5.000   0.874   0
 RD01_11_rdsq_out_no   1   RD01_11_rdsq_out_with_PP   0.2218   100   532.533   1.077   0
 RD01_11_rdsq_out_with_PP   1   RD01_11_rdsq_out_with_VS   0.0311   100   532.533   1.077   0
 RD01_11_rdsq_out_with_VS   1   Y188   0.0554   0    5.000   1.077   0
 RD01_12_rdsq_out_no   1   RD01_12_rdsq_out_with_PP   0.3919   100   707.837   0.911   0
 RD01_12_rdsq_out_with_PP   1   RD01_12_rdsq_out_with_VS   0.0549   100   707.837   0.911   0
 RD01_12_rdsq_out_with_VS   1   Y172   0.0980   0    5.000   0.911   0
 RD01_13_rdsq_out_no   1   RD01_13_rdsq_out_with_PP   0.3872   100   703.543   1.224   0
 RD01_13_rdsq_out_with_PP   1   RD01_13_rdsq_out_with_VS   0.0543   100   703.543   1.224   0
 RD01_13_rdsq_out_with_VS   1   Y173   0.0968   0    5.000   1.224   0
 RD01_14_rdsq_out_no   1   RD01_14_rdsq_out_with_PP   0.2341   100   547.083   1.324   0
 RD01_14_rdsq_out_with_PP   1   RD01_14_rdsq_out_with_VS   0.0328   100   547.083   1.324   0
 RD01_14_rdsq_out_with_VS   1   Y163   0.0585   0    5.000   1.324   0
 RD01_15_rdsq_out_no   1   RD01_15_rdsq_out_with_PP   0.1700   100   466.192   1.249   0
 RD01_15_rdsq_out_with_PP   1   RD01_15_rdsq_out_with_VS   0.0238   100   466.192   1.249   0
 RD01_15_rdsq_out_with_VS   1   Y469   0.0425   0    5.000   1.249   0
 RD01_16_rdsq_out_no   1   RD01_16_rdsq_out_with_PP   0.1746   100   472.529   1.600   0
 RD01_16_rdsq_out_with_PP   1   RD01_16_rdsq_out_with_VS   0.0245   100   472.529   1.600   0
 RD01_16_rdsq_out_with_VS   1   Y470   0.0437   0    5.000   1.600   0
 RD01_2_rdsq_out_no   1   RD01_2_rdsq_out_with_PP   0.1124   100   379.123   1.152   0
 RD01_2_rdsq_out_with_PP   1   RD01_2_rdsq_out_with_VS   0.0158   100   379.123   1.152   0
 RD01_2_rdsq_out_with_VS   1   Y474   0.0281   0    5.000   1.152   0
 RD01_3_rdsq_out_no   1   RD01_3_rdsq_out_with_PP   0.5360   100   827.823   1.434   0
 RD01_3_rdsq_out_with_PP   1   RD01_3_rdsq_out_with_VS   0.0751   100   827.823   1.434   0
 RD01_3_rdsq_out_with_VS   1   Y481   0.1340   0    5.000   1.434   0
 RD01_4_rdsq_out_no   1   RD01_4_rdsq_out_with_PP   0.6168   100   888.009   1.322   0
 RD01_4_rdsq_out_with_PP   1   RD01_4_rdsq_out_with_VS   0.0864   100   888.009   1.322   0
 RD01_4_rdsq_out_with_VS   1   Y483   0.1542   0    5.000   1.322   0
 RD01_5_rdsq_out_no   1   RD01_5_rdsq_out_with_PP   0.2122   100   520.856   1.459   0
 RD01_5_rdsq_out_with_PP   1   RD01_5_rdsq_out_with_VS   0.0297   100   520.856   1.459   0
 RD01_5_rdsq_out_with_VS   1   Y484   0.0530   0    5.000   1.459   0
 RD01_6_rdsq_out_no   1   RD01_6_rdsq_out_with_PP   0.2449   100   559.565   1.293   0
 RD01_6_rdsq_out_with_PP   1   RD01_6_rdsq_out_with_VS   0.0343   100   559.565   1.293   0
 RD01_6_rdsq_out_with_VS   1   Y485   0.0612   0    5.000   1.293   0
 RD01_7_rdsq_out_no   1   RD01_7_rdsq_out_with_PP   0.2269   100   538.585   0.528   0
 RD01_7_rdsq_out_with_PP   1   RD01_7_rdsq_out_with_VS   0.0318   100   538.585   0.528   0
 RD01_7_rdsq_out_with_VS   1   Y165   0.0567   0    5.000   0.528   0
 RD01_8_rdsq_out_no   1   RD01_8_rdsq_out_with_PP   0.2259   100   537.412   0.714   0
 RD01_8_rdsq_out_with_PP   1   RD01_8_rdsq_out_with_VS   0.0317   100   537.412   0.714   0
 RD01_8_rdsq_out_with_VS   1   Y166   0.0565   0    5.000   0.714   0
 RD01_9_rdsq_out_no   1   RD01_9_rdsq_out_with_PP   0.2818   100   600.190   0.975   0
 RD01_9_rdsq_out_with_PP   1   RD01_9_rdsq_out_with_VS   0.0395   100   600.190   0.975   0
 RD01_9_rdsq_out_with_VS   1   Y167   0.0704   0    5.000   0.975   0
 RD02_1_rdsq_out_no   1   RD02_1_rdsq_out_with_PP   0.4209   100   733.599   1.452   0
 RD02_1_rdsq_out_with_PP   1   RD02_1_rdsq_out_with_VS   0.0590   100   733.599   1.452   0
 RD02_1_rdsq_out_with_VS   1   Y566   0.1052   0    5.000   1.452   0
 RD02_10_rdsq_out_no   1   RD02_10_rdsq_out_with_PP   0.5664   100   850.982   1.995   0
 RD02_10_rdsq_out_with_PP   1   RD02_10_rdsq_out_with_VS   0.0794   100   850.982   1.995   0
 RD02_10_rdsq_out_with_VS   1   Y251   0.1416   0    5.000   1.995   0
 RD02_11_rdsq_out_no   1   RD02_11_rdsq_out_with_PP   0.3630   100   681.236   1.156   0
 RD02_11_rdsq_out_with_PP   1   RD02_11_rdsq_out_with_VS   0.0509   100   681.236   1.156   0
 RD02_11_rdsq_out_with_VS   1   Y595   0.0907   0    5.000   1.156   0
 RD02_12_rdsq_out_no   1   RD02_12_rdsq_out_with_PP   0.3776   100   694.770   1.270   0
 RD02_12_rdsq_out_with_PP   1   RD02_12_rdsq_out_with_VS   0.0529   100   694.770   1.270   0
 RD02_12_rdsq_out_with_VS   1   Y594   0.0944   0    5.000   1.270   0
 RD02_13_rdsq_out_no   1   RD02_13_rdsq_out_with_PP   0.1528   100   441.961   0.915   0
 RD02_13_rdsq_out_with_PP   1   RD02_13_rdsq_out_with_VS   0.0214   100   441.961   0.915   0
 RD02_13_rdsq_out_with_VS   1   Y576   0.0382   0    5.000   0.915   0
 RD02_14_rdsq_out_no   1   RD02_14_rdsq_out_with_PP   0.1753   100   473.345   0.816   0
 RD02_14_rdsq_out_with_PP   1   RD02_14_rdsq_out_with_VS   0.0246   100   473.345   0.816   0
 RD02_14_rdsq_out_with_VS   1   Y490   0.0438   0    5.000   0.816   0
 RD02_15_rdsq_out_no   1   RD02_15_rdsq_out_with_PP   0.2256   100   537.064   2.255   0
 RD02_15_rdsq_out_with_PP   1   RD02_15_rdsq_out_with_VS   0.0316   100   537.064   2.255   0
 RD02_15_rdsq_out_with_VS   1   Y246   0.0564   0    5.000   2.255   0
 RD02_16_rdsq_out_no   1   RD02_16_rdsq_out_with_PP   0.2396   100   553.498   2.079   0
 RD02_16_rdsq_out_with_PP   1   RD02_16_rdsq_out_with_VS   0.0336   100   553.498   2.079   0
 RD02_16_rdsq_out_with_VS   1   Y243   0.0599   0    5.000   2.079   0
 RD02_17_rdsq_out_no   1   RD02_17_rdsq_out_with_PP   0.3091   100   628.621   1.675   0
 RD02_17_rdsq_out_with_PP   1   RD02_17_rdsq_out_with_VS   0.0433   100   628.621   1.675   0
 RD02_17_rdsq_out_with_VS   1   Y471   0.0773   0    5.000   1.675   0
 RD02_18_rdsq_out_no   1   RD02_18_rdsq_out_with_PP   0.1492   100   436.683   2.344   0
 RD02_18_rdsq_out_with_PP   1   RD02_18_rdsq_out_with_VS   0.0209   100   436.683   2.344   0
 RD02_18_rdsq_out_with_VS   1   Y575   0.0373   0    5.000   2.344   0
 RD02_19_rdsq_out_no   1   RD02_19_rdsq_out_with_PP   0.2152   100   524.558   1.219   0
 RD02_19_rdsq_out_with_PP   1   RD02_19_rdsq_out_with_VS   0.0302   100   524.558   1.219   0
 RD02_19_rdsq_out_with_VS   1   Y579   0.0538   0    5.000   1.219   0
 RD02_2_rdsq_out_no   1   RD02_2_rdsq_out_with_PP   0.4623   100   768.747   1.379   0
 RD02_2_rdsq_out_with_PP   1   RD02_2_rdsq_out_with_VS   0.0648   100   768.747   1.379   0
 RD02_2_rdsq_out_with_VS   1   Y567   0.1155   0    5.000   1.379   0
 RD02_20_rdsq_out_no   1   RD02_20_rdsq_out_with_PP   0.2049   100   511.837   1.168   0
 RD02_20_rdsq_out_with_PP   1   RD02_20_rdsq_out_with_VS   0.0287   100   511.837   1.168   0
 RD02_20_rdsq_out_with_VS   1   Y578   0.0512   0    5.000   1.168   0
 RD02_21_rdsq_out_no   1   RD02_21_rdsq_out_with_PP   0.2703   100   587.849   0.868   0
 RD02_21_rdsq_out_with_PP   1   RD02_21_rdsq_out_with_VS   0.0379   100   587.849   0.868   0
 RD02_21_rdsq_out_with_VS   1   Y585   0.0676   0    5.000   0.868   0
 RD02_22_rdsq_out_no   1   RD02_22_rdsq_out_with_PP   0.2953   100   614.404   0.914   0
 RD02_22_rdsq_out_with_PP   1   RD02_22_rdsq_out_with_VS   0.0414   100   614.404   0.914   0
 RD02_22_rdsq_out_with_VS   1   Y584   0.0738   0    5.000   0.914   0
 RD02_3_rdsq_out_no   1   RD02_3_rdsq_out_with_PP   0.3472   100   666.214   1.213   0
 RD02_3_rdsq_out_with_PP   1   RD02_3_rdsq_out_with_VS   0.0487   100   666.214   1.213   0
 RD02_3_rdsq_out_with_VS   1   Y568   0.0868   0    5.000   1.213   0
 RD02_4_rdsq_out_no   1   RD02_4_rdsq_out_with_PP   0.3633   100   681.486   1.126   0
 RD02_4_rdsq_out_with_PP   1   RD02_4_rdsq_out_with_VS   0.0509   100   681.486   1.126   0
 RD02_4_rdsq_out_with_VS   1   Y234   0.0908   0    5.000   1.126   0
 RD02_5_rdsq_out_no   1   RD02_5_rdsq_out_with_PP   0.2674   100   584.715   1.306   0
 RD02_5_rdsq_out_with_PP   1   RD02_5_rdsq_out_with_VS   0.0375   100   584.715   1.306   0
 RD02_5_rdsq_out_with_VS   1   Y486   0.0668   0    5.000   1.306   0
 RD02_6_rdsq_out_no   1   RD02_6_rdsq_out_with_PP   0.2702   100   587.697   3.478   0
 RD02_6_rdsq_out_with_PP   1   RD02_6_rdsq_out_with_VS   0.0379   100   587.697   3.478   0
 RD02_6_rdsq_out_with_VS   1   Y236   0.0675   0    5.000   3.478   0
 RD02_7_rdsq_out_no   1   RD02_7_rdsq_out_with_PP   0.1725   100   469.635   1.819   0
 RD02_7_rdsq_out_with_PP   1   RD02_7_rdsq_out_with_VS   0.0242   100   469.635   1.819   0
 RD02_7_rdsq_out_with_VS   1   Y175   0.0431   0    5.000   1.819   0
 RD02_8_rdsq_out_no   1   RD02_8_rdsq_out_with_PP   0.2525   100   568.165   1.716   0
 RD02_8_rdsq_out_with_PP   1   RD02_8_rdsq_out_with_VS   0.0354   100   568.165   1.716   0
 RD02_8_rdsq_out_with_VS   1   Y284   0.0631   0    5.000   1.716   0
 RD02_9_rdsq_out_no   1   RD02_9_rdsq_out_with_PP   0.5518   100   839.923   1.588   0
 RD02_9_rdsq_out_with_PP   1   RD02_9_rdsq_out_with_VS   0.0773   100   839.923   1.588   0
 RD02_9_rdsq_out_with_VS   1   Y580   0.1379   0    5.000   1.588   0
 RD03_1_rdsq_out_no   1   RD03_1_rdsq_out_with_PP   0.5039   100   802.652   1.657   0
 RD03_1_rdsq_out_with_PP   1   RD03_1_rdsq_out_with_VS   0.0706   100   802.652   1.657   0
 RD03_1_rdsq_out_with_VS   1   Y488   0.1260   0    5.000   1.657   0
 RD03_10_rdsq_out_no   1   RD03_10_rdsq_out_with_PP   0.4261   100   738.088   1.003   0
 RD03_10_rdsq_out_with_PP   1   RD03_10_rdsq_out_with_VS   0.0597   100   738.088   1.003   0
 RD03_10_rdsq_out_with_VS   1   Y338   0.1065   0    5.000   1.003   0
 RD03_2_rdsq_out_no   1   RD03_2_rdsq_out_with_PP   0.5845   100   864.422   1.700   0
 RD03_2_rdsq_out_with_PP   1   RD03_2_rdsq_out_with_VS   0.0819   100   864.422   1.700   0
 RD03_2_rdsq_out_with_VS   1   Y489   0.1461   0    5.000   1.700   0
 RD03_3_rdsq_out_no   1   RD03_3_rdsq_out_with_PP   0.5622   100   847.813   0.715   0
 RD03_3_rdsq_out_with_PP   1   RD03_3_rdsq_out_with_VS   0.0788   100   847.813   0.715   0
 RD03_3_rdsq_out_with_VS   1   Y572   0.1405   0    5.000   0.715   0
 RD03_4_rdsq_out_no   1   RD03_4_rdsq_out_with_PP   0.5643   100   849.381   0.682   0
 RD03_4_rdsq_out_with_PP   1   RD03_4_rdsq_out_with_VS   0.0791   100   849.381   0.682   0
 RD03_4_rdsq_out_with_VS   1   Y573   0.1411   0    5.000   0.682   0
 RD03_5_rdsq_out_no   1   RD03_5_rdsq_out_with_PP   0.3575   100   676.016   1.582   0
 RD03_5_rdsq_out_with_PP   1   RD03_5_rdsq_out_with_VS   0.0501   100   676.016   1.582   0
 RD03_5_rdsq_out_with_VS   1   Y350   0.0894   0    5.000   1.582   0
 RD03_6_rdsq_out_no   1   RD03_6_rdsq_out_with_PP   0.3981   100   713.379   1.860   0
 RD03_6_rdsq_out_with_PP   1   RD03_6_rdsq_out_with_VS   0.0558   100   713.379   1.860   0
 RD03_6_rdsq_out_with_VS   1   Y358   0.0995   0    5.000   1.860   0
 RD03_7_rdsq_out_no   1   RD03_7_rdsq_out_with_PP   0.3868   100   703.236   1.877   0
 RD03_7_rdsq_out_with_PP   1   RD03_7_rdsq_out_with_VS   0.0542   100   703.236   1.877   0
 RD03_7_rdsq_out_with_VS   1   Y354   0.0967   0    5.000   1.877   0
 RD03_8_rdsq_out_no   1   RD03_8_rdsq_out_with_PP   0.4308   100   742.127   1.783   0
 RD03_8_rdsq_out_with_PP   1   RD03_8_rdsq_out_with_VS   0.0604   100   742.127   1.783   0
 RD03_8_rdsq_out_with_VS   1   Y362   0.1077   0    5.000   1.783   0
 RD03_9_rdsq_out_no   1   RD03_9_rdsq_out_with_PP   0.4111   100   724.938   1.443   0
 RD03_9_rdsq_out_with_PP   1   RD03_9_rdsq_out_with_VS   0.0576   100   724.938   1.443   0
 RD03_9_rdsq_out_with_VS   1   Y336   0.1028   0    5.000   1.443   0
 RD04_1_rdsq_out_no   1   RD04_1_rdsq_out_with_PP   0.2478   100   562.898   2.934   0
 RD04_1_rdsq_out_with_PP   1   RD04_1_rdsq_out_with_VS   0.0347   100   562.898   2.934   0
 RD04_1_rdsq_out_with_VS   1   Y180   0.0620   0    5.000   2.934   0
 RD04_10_rdsq_out_no   1   RD04_10_rdsq_out_with_PP   0.3036   100   623.036   1.733   0
 RD04_10_rdsq_out_with_PP   1   RD04_10_rdsq_out_with_VS   0.0426   100   623.036   1.733   0
 RD04_10_rdsq_out_with_VS   1   Y509   0.0759   0    5.000   1.733   0
 RD04_11_rdsq_out_no   1   RD04_11_rdsq_out_with_PP   0.5229   100   817.652   2.649   0
 RD04_11_rdsq_out_with_PP   1   RD04_11_rdsq_out_with_VS   0.0733   100   817.652   2.649   0
 RD04_11_rdsq_out_with_VS   1   Y589   0.1307   0    5.000   2.649   0
 RD04_12_rdsq_out_no   1   RD04_12_rdsq_out_with_PP   0.5769   100   858.823   1.726   0
 RD04_12_rdsq_out_with_PP   1   RD04_12_rdsq_out_with_VS   0.0809   100   858.823   1.726   0
 RD04_12_rdsq_out_with_VS   1   Y272   0.1442   0    5.000   1.726   0
 RD04_2_rdsq_out_no   1   RD04_2_rdsq_out_with_PP   0.4603   100   767.127   2.076   0
 RD04_2_rdsq_out_with_PP   1   RD04_2_rdsq_out_with_VS   0.0645   100   767.127   2.076   0
 RD04_2_rdsq_out_with_VS   1   Y260   0.1151   0    5.000   2.076   0
 RD04_3_rdsq_out_no   1   RD04_3_rdsq_out_with_PP   0.4576   100   764.907   1.260   0
 RD04_3_rdsq_out_with_PP   1   RD04_3_rdsq_out_with_VS   0.0641   100   764.907   1.260   0
 RD04_3_rdsq_out_with_VS   1   Y548   0.1144   0    5.000   1.260   0
 RD04_4_rdsq_out_no   1   RD04_4_rdsq_out_with_PP   0.4411   100   750.966   1.175   0
 RD04_4_rdsq_out_with_PP   1   RD04_4_rdsq_out_with_VS   0.0618   100   750.966   1.175   0
 RD04_4_rdsq_out_with_VS   1   Y285   0.1103   0    5.000   1.175   0
 RD04_5_rdsq_out_no   1   RD04_5_rdsq_out_with_PP   0.6049   100   879.379   3.747   0
 RD04_5_rdsq_out_with_PP   1   RD04_5_rdsq_out_with_VS   0.0848   100   879.379   3.747   0
 RD04_5_rdsq_out_with_VS   1   Y265   0.1512   0    5.000   3.747   0
 RD04_6_rdsq_out_no   1   RD04_6_rdsq_out_with_PP   0.5069   100   804.992   2.673   0
 RD04_6_rdsq_out_with_PP   1   RD04_6_rdsq_out_with_VS   0.0710   100   804.992   2.673   0
 RD04_6_rdsq_out_with_VS   1   Y266   0.1267   0    5.000   2.673   0
 RD04_7_rdsq_out_no   1   RD04_7_rdsq_out_with_PP   0.3942   100   709.904   1.718   0
 RD04_7_rdsq_out_with_PP   1   RD04_7_rdsq_out_with_VS   0.0552   100   709.904   1.718   0
 RD04_7_rdsq_out_with_VS   1   Y270   0.0985   0    5.000   1.718   0
 RD04_8_rdsq_out_no   1   RD04_8_rdsq_out_with_PP   0.3164   100   636.049   0.696   0
 RD04_8_rdsq_out_with_PP   1   RD04_8_rdsq_out_with_VS   0.0443   100   636.049   0.696   0
 RD04_8_rdsq_out_with_VS   1   Y274   0.0791   0    5.000   0.696   0
 RD04_9_rdsq_out_no   1   RD04_9_rdsq_out_with_PP   0.2983   100   617.550   1.749   0
 RD04_9_rdsq_out_with_PP   1   RD04_9_rdsq_out_with_VS   0.0418   100   617.550   1.749   0
 RD04_9_rdsq_out_with_VS   1   Y508   0.0746   0    5.000   1.749   0
 RD05_1_rdsq_out_no   1   RD05_1_rdsq_out_with_PP   0.3645   100   682.685   2.395   0
 RD05_1_rdsq_out_with_PP   1   RD05_1_rdsq_out_with_VS   0.0511   100   682.685   2.395   0
 RD05_1_rdsq_out_with_VS   1   Y551   0.0911   0    5.000   2.395   0
 RD05_10_rdsq_out_no   1   RD05_10_rdsq_out_with_PP   0.2182   100   528.157   2.664   0
 RD05_10_rdsq_out_with_PP   1   RD05_10_rdsq_out_with_VS   0.0306   100   528.157   2.664   0
 RD05_10_rdsq_out_with_VS   1   Y556   0.0545   0    5.000   2.664   0
 RD05_11_rdsq_out_no   1   RD05_11_rdsq_out_with_PP   0.1241   100   398.358   2.925   0
 RD05_11_rdsq_out_with_PP   1   RD05_11_rdsq_out_with_VS   0.0174   100   398.358   2.925   0
 RD05_11_rdsq_out_with_VS   1   Y218   0.0310   0    5.000   2.925   0
 RD05_12_rdsq_out_no   1   RD05_12_rdsq_out_with_PP   0.1241   100   398.260   3.346   0
 RD05_12_rdsq_out_with_PP   1   RD05_12_rdsq_out_with_VS   0.0174   100   398.260   3.346   0
 RD05_12_rdsq_out_with_VS   1   Y519   0.0310   0    5.000   3.346   0
 RD05_13_rdsq_out_no   1   RD05_13_rdsq_out_with_PP   0.3731   100   690.694   1.852   0
 RD05_13_rdsq_out_with_PP   1   RD05_13_rdsq_out_with_VS   0.0523   100   690.694   1.852   0
 RD05_13_rdsq_out_with_VS   1   Y522   0.0933   0    5.000   1.852   0
 RD05_14_rdsq_out_no   1   RD05_14_rdsq_out_with_PP   0.4165   100   729.719   3.044   0
 RD05_14_rdsq_out_with_PP   1   RD05_14_rdsq_out_with_VS   0.0584   100   729.719   3.044   0
 RD05_14_rdsq_out_with_VS   1   Y523   0.1041   0    5.000   3.044   0
 RD05_15_rdsq_out_no   1   RD05_15_rdsq_out_with_PP   0.1566   100   447.473   1.064   0
 RD05_15_rdsq_out_with_PP   1   RD05_15_rdsq_out_with_VS   0.0220   100   447.473   1.064   0
 RD05_15_rdsq_out_with_VS   1   Y531   0.0391   0    5.000   1.064   0
 RD05_16_rdsq_out_no   1   RD05_16_rdsq_out_with_PP   0.1638   100   457.598   0.623   0
 RD05_16_rdsq_out_with_PP   1   RD05_16_rdsq_out_with_VS   0.0230   100   457.598   0.623   0
 RD05_16_rdsq_out_with_VS   1   Y532   0.0409   0    5.000   0.623   0
 RD05_17_rdsq_out_no   1   RD05_17_rdsq_out_with_PP   0.1510   100   439.321   0.596   0
 RD05_17_rdsq_out_with_PP   1   RD05_17_rdsq_out_with_VS   0.0212   100   439.321   0.596   0
 RD05_17_rdsq_out_with_VS   1   Y538   0.0377   0    5.000   0.596   0
 RD05_18_rdsq_out_no   1   RD05_18_rdsq_out_with_PP   0.1580   100   449.460   0.779   0
 RD05_18_rdsq_out_with_PP   1   RD05_18_rdsq_out_with_VS   0.0221   100   449.460   0.779   0
 RD05_18_rdsq_out_with_VS   1   Y540   0.0395   0    5.000   0.779   0
 RD05_19_rdsq_out_no   1   RD05_19_rdsq_out_with_PP   0.1605   100   452.959   1.466   0
 RD05_19_rdsq_out_with_PP   1   RD05_19_rdsq_out_with_VS   0.0225   100   452.959   1.466   0
 RD05_19_rdsq_out_with_VS   1   Y530   0.0401   0    5.000   1.466   0
 RD05_2_rdsq_out_no   1   RD05_2_rdsq_out_with_PP   0.4015   100   716.475   0.613   0
 RD05_2_rdsq_out_with_PP   1   RD05_2_rdsq_out_with_VS   0.0563   100   716.475   0.613   0
 RD05_2_rdsq_out_with_VS   1   Y553   0.1004   0    5.000   0.613   0
 RD05_20_rdsq_out_no   1   RD05_20_rdsq_out_with_PP   0.1657   100   460.275   0.763   0
 RD05_20_rdsq_out_with_PP   1   RD05_20_rdsq_out_with_VS   0.0232   100   460.275   0.763   0
 RD05_20_rdsq_out_with_VS   1   Y529   0.0414   0    5.000   0.763   0
 RD05_21_rdsq_out_no   1   RD05_21_rdsq_out_with_PP   0.1050   100   366.432   1.277   0
 RD05_21_rdsq_out_with_PP   1   RD05_21_rdsq_out_with_VS   0.0147   100   366.432   1.277   0
 RD05_21_rdsq_out_with_VS   1   Y541   0.0263   0    5.000   1.277   0
 RD05_22_rdsq_out_no   1   RD05_22_rdsq_out_with_PP   0.1029   100   362.663   1.769   0
 RD05_22_rdsq_out_with_PP   1   RD05_22_rdsq_out_with_VS   0.0144   100   362.663   1.769   0
 RD05_22_rdsq_out_with_VS   1   Y546   0.0257   0    5.000   1.769   0
 RD05_23_rdsq_out_no   1   RD05_23_rdsq_out_with_PP   0.1690   100   464.890   1.130   0
 RD05_23_rdsq_out_with_PP   1   RD05_23_rdsq_out_with_VS   0.0237   100   464.890   1.130   0
 RD05_23_rdsq_out_with_VS   1   Y528   0.0423   0    5.000   1.130   0
 RD05_24_rdsq_out_no   1   RD05_24_rdsq_out_with_PP   0.1724   100   469.511   1.154   0
 RD05_24_rdsq_out_with_PP   1   RD05_24_rdsq_out_with_VS   0.0242   100   469.511   1.154   0
 RD05_24_rdsq_out_with_VS   1   Y526   0.0431   0    5.000   1.154   0
 RD05_25_rdsq_out_no   1   RD05_25_rdsq_out_with_PP   0.1214   100   393.882   1.389   0
 RD05_25_rdsq_out_with_PP   1   RD05_25_rdsq_out_with_VS   0.0170   100   393.882   1.389   0
 RD05_25_rdsq_out_with_VS   1   Y543   0.0303   0    5.000   1.389   0
 RD05_26_rdsq_out_no   1   RD05_26_rdsq_out_with_PP   0.1185   100   389.260   1.944   0
 RD05_26_rdsq_out_with_PP   1   RD05_26_rdsq_out_with_VS   0.0166   100   389.260   1.944   0
 RD05_26_rdsq_out_with_VS   1   Y544   0.0296   0    5.000   1.944   0
 RD05_3_rdsq_out_no   1   RD05_3_rdsq_out_with_PP   0.4189   100   731.829   1.480   0
 RD05_3_rdsq_out_with_PP   1   RD05_3_rdsq_out_with_VS   0.0587   100   731.829   1.480   0
 RD05_3_rdsq_out_with_VS   1   Y225   0.1047   0    5.000   1.480   0
 RD05_4_rdsq_out_no   1   RD05_4_rdsq_out_with_PP   0.4126   100   726.318   0.566   0
 RD05_4_rdsq_out_with_PP   1   RD05_4_rdsq_out_with_VS   0.0578   100   726.318   0.566   0
 RD05_4_rdsq_out_with_VS   1   Y558   0.1031   0    5.000   0.566   0
 RD05_5_rdsq_out_no   1   RD05_5_rdsq_out_with_PP   0.1689   100   464.694   4.923   0
 RD05_5_rdsq_out_with_PP   1   RD05_5_rdsq_out_with_VS   0.0237   100   464.694   4.923   0
 RD05_5_rdsq_out_with_VS   1   Y537   0.0422   0    5.000   4.923   0
 RD05_6_rdsq_out_no   1   RD05_6_rdsq_out_with_PP   0.1683   100   463.883   1.294   0
 RD05_6_rdsq_out_with_PP   1   RD05_6_rdsq_out_with_VS   0.0236   100   463.883   1.294   0
 RD05_6_rdsq_out_with_VS   1   Y559   0.0421   0    5.000   1.294   0
 RD05_7_rdsq_out_no   1   RD05_7_rdsq_out_with_PP   0.1077   100   370.995   3.820   0
 RD05_7_rdsq_out_with_PP   1   RD05_7_rdsq_out_with_VS   0.0151   100   370.995   3.820   0
 RD05_7_rdsq_out_with_VS   1   Y535   0.0269   0    5.000   3.820   0
 RD05_8_rdsq_out_no   1   RD05_8_rdsq_out_with_PP   0.1042   100   364.930   2.763   0
 RD05_8_rdsq_out_with_PP   1   RD05_8_rdsq_out_with_VS   0.0146   100   364.930   2.763   0
 RD05_8_rdsq_out_with_VS   1   Y536   0.0260   0    5.000   2.763   0
 RD05_9_rdsq_out_no   1   RD05_9_rdsq_out_with_PP   0.2224   100   533.251   1.669   0
 RD05_9_rdsq_out_with_PP   1   RD05_9_rdsq_out_with_VS   0.0312   100   533.251   1.669   0
 RD05_9_rdsq_out_with_VS   1   Y557   0.0556   0    5.000   1.669   0
 RD06_1_rdsq_out_no   1   RD06_1_rdsq_out_with_PP   0.2076   100   515.235   2.743   0
 RD06_1_rdsq_out_with_PP   1   RD06_1_rdsq_out_with_VS   0.0291   100   515.235   2.743   0
 RD06_1_rdsq_out_with_VS   1   Y281   0.0519   0    5.000   2.743   0
 RD06_10_rdsq_out_no   1   RD06_10_rdsq_out_with_PP   0.3777   100   694.856   1.194   0
 RD06_10_rdsq_out_with_PP   1   RD06_10_rdsq_out_with_VS   0.0529   100   694.856   1.194   0
 RD06_10_rdsq_out_with_VS   1   Y468   0.0944   0    5.000   1.194   0
 RD06_11_rdsq_out_no   1   RD06_11_rdsq_out_with_PP   0.2998   100   619.113   1.322   0
 RD06_11_rdsq_out_with_PP   1   RD06_11_rdsq_out_with_VS   0.0420   100   619.113   1.322   0
 RD06_11_rdsq_out_with_VS   1   Y290   0.0749   0    5.000   1.322   0
 RD06_12_rdsq_out_no   1   RD06_12_rdsq_out_with_PP   0.2828   100   601.269   0.883   0
 RD06_12_rdsq_out_with_PP   1   RD06_12_rdsq_out_with_VS   0.0396   100   601.269   0.883   0
 RD06_12_rdsq_out_with_VS   1   Y15   0.0707   0    5.000   0.883   0
 RD06_13_rdsq_out_no   1   RD06_13_rdsq_out_with_PP   0.1775   100   476.427   1.781   0
 RD06_13_rdsq_out_with_PP   1   RD06_13_rdsq_out_with_VS   0.0249   100   476.427   1.781   0
 RD06_13_rdsq_out_with_VS   1   Y18   0.0444   0    5.000   1.781   0
 RD06_14_rdsq_out_no   1   RD06_14_rdsq_out_with_PP   0.2002   100   505.891   1.797   0
 RD06_14_rdsq_out_with_PP   1   RD06_14_rdsq_out_with_VS   0.0281   100   505.891   1.797   0
 RD06_14_rdsq_out_with_VS   1   Y14   0.0500   0    5.000   1.797   0
 RD06_15_rdsq_out_no   1   RD06_15_rdsq_out_with_PP   0.4492   100   757.813   1.372   0
 RD06_15_rdsq_out_with_PP   1   RD06_15_rdsq_out_with_VS   0.0630   100   757.813   1.372   0
 RD06_15_rdsq_out_with_VS   1   Y9   0.1123   0    5.000   1.372   0
 RD06_16_rdsq_out_no   1   RD06_16_rdsq_out_with_PP   0.5605   100   846.520   1.502   0
 RD06_16_rdsq_out_with_PP   1   RD06_16_rdsq_out_with_VS   0.0786   100   846.520   1.502   0
 RD06_16_rdsq_out_with_VS   1   Y292   0.1401   0    5.000   1.502   0
 RD06_17_rdsq_out_no   1   RD06_17_rdsq_out_with_PP   0.3505   100   669.421   1.382   0
 RD06_17_rdsq_out_with_PP   1   RD06_17_rdsq_out_with_VS   0.0491   100   669.421   1.382   0
 RD06_17_rdsq_out_with_VS   1   Y4   0.0876   0    5.000   1.382   0
 RD06_18_rdsq_out_no   1   RD06_18_rdsq_out_with_PP   0.3151   100   634.721   1.715   0
 RD06_18_rdsq_out_with_PP   1   RD06_18_rdsq_out_with_VS   0.0442   100   634.721   1.715   0
 RD06_18_rdsq_out_with_VS   1   Y195   0.0788   0    5.000   1.715   0
 RD06_19_rdsq_out_no   1   RD06_19_rdsq_out_with_PP   0.2146   100   523.770   1.334   0
 RD06_19_rdsq_out_with_PP   1   RD06_19_rdsq_out_with_VS   0.0301   100   523.770   1.334   0
 RD06_19_rdsq_out_with_VS   1   Y395   0.0536   0    5.000   1.334   0
 RD06_2_rdsq_out_no   1   RD06_2_rdsq_out_with_PP   0.2118   100   520.384   3.051   0
 RD06_2_rdsq_out_with_PP   1   RD06_2_rdsq_out_with_VS   0.0297   100   520.384   3.051   0
 RD06_2_rdsq_out_with_VS   1   Y278   0.0529   0    5.000   3.051   0
 RD06_20_rdsq_out_no   1   RD06_20_rdsq_out_with_PP   0.1985   100   503.812   1.349   0
 RD06_20_rdsq_out_with_PP   1   RD06_20_rdsq_out_with_VS   0.0278   100   503.812   1.349   0
 RD06_20_rdsq_out_with_VS   1   Y600   0.0496   0    5.000   1.349   0
 RD06_21_rdsq_out_no   1   RD06_21_rdsq_out_with_PP   0.2320   100   544.653   1.937   0
 RD06_21_rdsq_out_with_PP   1   RD06_21_rdsq_out_with_VS   0.0325   100   544.653   1.937   0
 RD06_21_rdsq_out_with_VS   1   Y494   0.0580   0    5.000   1.937   0
 RD06_22_rdsq_out_no   1   RD06_22_rdsq_out_with_PP   0.1986   100   503.844   1.483   0
 RD06_22_rdsq_out_with_PP   1   RD06_22_rdsq_out_with_VS   0.0278   100   503.844   1.483   0
 RD06_22_rdsq_out_with_VS   1   Y602   0.0496   0    5.000   1.483   0
 RD06_23_rdsq_out_no   1   RD06_23_rdsq_out_with_PP   0.3027   100   622.083   2.030   0
 RD06_23_rdsq_out_with_PP   1   RD06_23_rdsq_out_with_VS   0.0424   100   622.083   2.030   0
 RD06_23_rdsq_out_with_VS   1   Y457   0.0757   0    5.000   2.030   0
 RD06_24_rdsq_out_no   1   RD06_24_rdsq_out_with_PP   0.2635   100   580.394   1.598   0
 RD06_24_rdsq_out_with_PP   1   RD06_24_rdsq_out_with_VS   0.0369   100   580.394   1.598   0
 RD06_24_rdsq_out_with_VS   1   Y458   0.0659   0    5.000   1.598   0
 RD06_3_rdsq_out_no   1   RD06_3_rdsq_out_with_PP   0.2703   100   587.801   1.034   0
 RD06_3_rdsq_out_with_PP   1   RD06_3_rdsq_out_with_VS   0.0379   100   587.801   1.034   0
 RD06_3_rdsq_out_with_VS   1   Y289   0.0676   0    5.000   1.034   0
 RD06_4_rdsq_out_no   1   RD06_4_rdsq_out_with_PP   0.2958   100   614.968   0.852   0
 RD06_4_rdsq_out_with_PP   1   RD06_4_rdsq_out_with_VS   0.0415   100   614.968   0.852   0
 RD06_4_rdsq_out_with_VS   1   Y596   0.0739   0    5.000   0.852   0
 RD06_5_rdsq_out_no   1   RD06_5_rdsq_out_with_PP   0.3316   100   651.101   1.388   0
 RD06_5_rdsq_out_with_PP   1   RD06_5_rdsq_out_with_VS   0.0465   100   651.101   1.388   0
 RD06_5_rdsq_out_with_VS   1   Y153   0.0829   0    5.000   1.388   0
 RD06_6_rdsq_out_no   1   RD06_6_rdsq_out_with_PP   0.1797   100   479.349   1.177   0
 RD06_6_rdsq_out_with_PP   1   RD06_6_rdsq_out_with_VS   0.0252   100   479.349   1.177   0
 RD06_6_rdsq_out_with_VS   1   Y158   0.0449   0    5.000   1.177   0
 RD06_7_rdsq_out_no   1   RD06_7_rdsq_out_with_PP   0.3725   100   690.065   1.056   0
 RD06_7_rdsq_out_with_PP   1   RD06_7_rdsq_out_with_VS   0.0522   100   690.065   1.056   0
 RD06_7_rdsq_out_with_VS   1   Y467   0.0931   0    5.000   1.056   0
 RD06_8_rdsq_out_no   1   RD06_8_rdsq_out_with_PP   0.3358   100   655.203   1.778   0
 RD06_8_rdsq_out_with_PP   1   RD06_8_rdsq_out_with_VS   0.0471   100   655.203   1.778   0
 RD06_8_rdsq_out_with_VS   1   Y155   0.0839   0    5.000   1.778   0
 RD06_9_rdsq_out_no   1   RD06_9_rdsq_out_with_PP   0.1669   100   461.941   0.955   0
 RD06_9_rdsq_out_with_PP   1   RD06_9_rdsq_out_with_VS   0.0234   100   461.941   0.955   0
 RD06_9_rdsq_out_with_VS   1   Y157   0.0417   0    5.000   0.955   0
 RD07_1_rdsq_out_no   1   RD07_1_rdsq_out_with_PP   0.9195   100   1084.213   2.061   0
 RD07_1_rdsq_out_with_PP   1   RD07_1_rdsq_out_with_VS   0.1289   100   1084.213   2.061   0
 RD07_1_rdsq_out_with_VS   1   Y256   0.2298   0    5.000   2.061   0
 RD07_10_rdsq_out_no   1   RD07_10_rdsq_out_with_PP   0.3161   100   635.715   1.345   0
 RD07_10_rdsq_out_with_PP   1   RD07_10_rdsq_out_with_VS   0.0443   100   635.715   1.345   0
 RD07_10_rdsq_out_with_VS   1   Y146   0.0790   0    5.000   1.345   0
 RD07_11_rdsq_out_no   1   RD07_11_rdsq_out_with_PP   0.4563   100   763.749   1.578   0
 RD07_11_rdsq_out_with_PP   1   RD07_11_rdsq_out_with_VS   0.0639   100   763.749   1.578   0
 RD07_11_rdsq_out_with_VS   1   Y259   0.1140   0    5.000   1.578   0